/*--------------------------------*- C++ -*----------------------------------*\
| =========                 |                                                 |
| \\      /  F ield         | OpenFOAM: The Open Source CFD Toolbox           |
|  \\    /   O peration     | Version:  5                                     |
|   \\  /    A nd           | Web:      www.OpenFOAM.org                      |
|    \\/     M anipulation  |                                                 |
\*---------------------------------------------------------------------------*/
FoamFile
{
    version     2.0;
    format      ascii;
    class       volScalarField;
    object      k;
}
// * * * * * * * * * * * * * * * * * * * * * * * * * * * * * * * * * * * * * //

dimensions      [0 2 -2 0 0 0 0];

internalField   uniform 0.00375;

boundaryField
{
    inlet
    {
        type            fixedValue;
        value           uniform 0.00375;
    }

    outlet
    {
        type            inletOutlet;
        inletValue      uniform 0.00375;
        value           uniform 0.00375;
    }

    Wall
    {
        type            kqRWallFunction;
        value           uniform 1e-10;
    }

    right
    {
        type            symmetry;
    }

    frontAndBack
    {
        type            empty;
    }
}

// ************************************************************************* //
